-------------------------------------------------------
          Amber 24 PMEMD                              2024
          -------------------------------------------------------

  [-O]verwriting output

File Assignments:

 Here is the input file:

MD explicit solvent heavy atom minimal BB rest shake dt 0.001
&cntrl
  imin = 0, nstlim = 20000, dt=0.001,
  ntx = 5, irest = 1,
  ntwx = 1000, ioutfm = 1, ntpr = 50, ntwr = 500,
  iwrap = 1, nscm = 0,
  ntc = 2, ntf = 1, ntb = 2, cut = 8.0,
  ntt = 1, tautp = 1.0, temp0 = 310.0, tempi = 310.0,
  ntp = 1, taup = 1.0,
  igb = 0, saltcon = 0.0,
  ntr = 1, restraintmask = ":276-1@H,N,CA,HA,C,O", restraint_wt = 0.5,
&end

Note: ig = -1. Setting random seed to   507100 based on wallclock time in
      microseconds.

--------------------------------------------------------------------------------
   1.  RESOURCE   USE:
--------------------------------------------------------------------------------

 getting box info from netcdf restart file
 NATOM  =   36074 NTYPES =      27 NBONH =   33811 MBONA  =    2276
 NTHETH =    5254 MTHETA =    3069 NPHIH =   10329 MPHIA  =    9843
 NHPARM =       0 NPARM  =       0 NNB   =   67179 NRES   =   10809
 NBONA  =    2276 NTHETA =    3069 NPHIA =    9843 NUMBND =      75
 NUMANG =     174 NPTRA  =     206 NATYP =      39 NPHB   =       0
 IFBOX  =       2 NMXRS  =      44 IFCAP =       0 NEXTRA =       0
 NCOPY  =       0

     BOX TYPE: TRUNCATED OCTAHEDRON

--------------------------------------------------------------------------------
   2.  CONTROL  DATA  FOR  THE  RUN
--------------------------------------------------------------------------------

default_name

General flags:
     imin    =       0, nmropt  =       0

Nature and format of input:
     ntx     =       5, irest   =       1, ntrx    =       1

Nature and format of output:
     ntxo    =       2, ntpr    =      50, ntrx    =       1, ntwr    =     500
     iwrap   =       1, ntwx    =    1000, ntwv    =       0, ntwe    =       0
     ioutfm  =       1, ntwprt  =       0, idecomp =       0, rbornstat=      0

Potential function:
     ntf     =       1, ntb     =       2, igb     =       0, nsnb    =      25
     ipol    =       0, gbsa    =       0, iesp    =       0
     dielc   =   1.00000, cut     =   8.00000, intdiel =   1.00000

Frozen or restrained atoms:
     ibelly  =       0, ntr     =       1
     restraint_wt =   0.50000

Molecular dynamics:
     nstlim  =     20000, nscm    =         0, nrespa  =         1
     t       =   0.00000, dt      =   0.00100, vlimit  =  -1.00000

Berendsen (weak-coupling) temperature regulation:
     temp0   = 310.00000, tempi   = 310.00000, tautp   =   1.00000

Pressure regulation:
     ntp     =       1
     pres0   =   1.00000, comp    =  44.60000, taup    =   1.00000

SHAKE:
     ntc     =       2, jfastw  =       0
     tol     =   0.00001

Ewald parameters:
     verbose =       0, ew_type =       0, nbflag  =       1, use_pme =       1
     vdwmeth =       1, eedmeth =       1, netfrc  =       1
     Box X =   77.807   Box Y =   77.807   Box Z =   77.807
     Alpha =  109.471   Beta  =  109.471   Gamma =  109.471
     NFFT1 =   80       NFFT2 =   80       NFFT3 =   80
     Cutoff=    8.000   Tol   =0.100E-04
     Ewald Coefficient =  0.34864
     Interpolation order =    4

    LOADING THE CONSTRAINED ATOMS AS GROUPS

   5.  REFERENCE ATOM COORDINATES

  default_name
     Mask :276-1@H,N,CA,HA,C,O; matches     0 atoms

--------------------------------------------------------------------------------
   3.  ATOMIC COORDINATES AND VELOCITIES
--------------------------------------------------------------------------------

default_name
 begin time read from input coords =    20.000 ps

 Number of triangulated 3-point waters found:    10505

     Sum of charges from parm topology file =  -0.00000017
     Forcing neutrality...

--------------------------------------------------------------------------------
   4.  RESULTS
 NSTEP =       50   TIME(PS) =      20.050  TEMP(K) =   308.65  PRESS =  -220.4
 Etot   =    -85483.5456  EKtot   =     22820.1094  EPtot      =   -108303.6550
 BOND   =       866.5145  ANGLE   =      2402.8853  DIHED      =      3662.2096
 1-4 NB =       991.3489  1-4 EEL =     12734.7209  VDWAALS    =     11933.9352
 EELEC  =   -140895.2694  EHBOND  =         0.0000  RESTRAINT  =         0.0000
 EKCMT  =      9657.4985  VIRIAL  =     11382.9706  VOLUME     =    362562.5079
                                                    Density    =         1.0168
 ------------------------------------------------------------------------------

      A V E R A G E S   O V E R     400 S T E P S

 NSTEP =    20000   TIME(PS) =      40.000  TEMP(K) =   309.92  PRESS =    -0.1
 Etot   =    -85457.2242  EKtot   =     22913.9759  EPtot      =   -108371.2001
 BOND   =       845.5241  ANGLE   =      2344.3537  DIHED      =      3658.0605
 1-4 NB =      1016.7088  1-4 EEL =     12768.1410  VDWAALS    =     12085.8405
 EELEC  =   -141089.8288  EHBOND  =         0.0000  RESTRAINT  =         0.0000
 EKCMT  =      9751.3539  VIRIAL  =      9752.4221  VOLUME     =    362980.9471
                                                    Density    =         1.0157
 ------------------------------------------------------------------------------

      R M S  F L U C T U A T I O N S

 NSTEP =    20000   TIME(PS) =      40.000  TEMP(K) =     1.25  PRESS =   137.4
 Etot   =        42.1700  EKtot   =        92.4496  EPtot      =       100.8295
 BOND   =        25.2225  ANGLE   =        35.5439  DIHED      =        19.4154
 1-4 NB =        14.5595  1-4 EEL =        35.0861  VDWAALS    =       142.1252
 EELEC  =       196.1531  EHBOND  =         0.0000  RESTRAINT  =         0.0000
 EKCMT  =        72.8697  VIRIAL  =      1074.5936  VOLUME     =       452.8923
                                                    Density    =         0.0013
 ------------------------------------------------------------------------------
