-------------------------------------------------------
          Amber 24 PMEMD                              2024
          -------------------------------------------------------

  [-O]verwriting output

File Assignments:

 Here is the input file:

MD explicit solvent heavy atom minimal rest shake dt 0.001, 10 ps, dt=.001
&cntrl
  imin = 0, nstlim = 10000, dt=0.001,
  ntx = 5, irest = 1,
  ntwx = 1000, ioutfm = 1, ntpr = 50, ntwr = 500,
  iwrap = 1, nscm = 0,
  ntc = 2, ntf = 1, ntb = 2, cut = 8.0,
  ntt = 1, tautp = 1.0, temp0 = 310.0, tempi = 310.0,
  ntp = 1, taup = 1.0,
  igb = 0, saltcon = 0.0,
  ntr = 1, restraintmask = ':276-1 & !@H=', restraint_wt = 0.5,
&end

Note: ig = -1. Setting random seed to   346927 based on wallclock time in
      microseconds.

--------------------------------------------------------------------------------
   1.  RESOURCE   USE:
--------------------------------------------------------------------------------

 getting box info from netcdf restart file
 NATOM  =   36074 NTYPES =      27 NBONH =   33811 MBONA  =    2276
 NTHETH =    5254 MTHETA =    3069 NPHIH =   10329 MPHIA  =    9843
 NHPARM =       0 NPARM  =       0 NNB   =   67179 NRES   =   10809
 NBONA  =    2276 NTHETA =    3069 NPHIA =    9843 NUMBND =      75
 NUMANG =     174 NPTRA  =     206 NATYP =      39 NPHB   =       0
 IFBOX  =       2 NMXRS  =      44 IFCAP =       0 NEXTRA =       0
 NCOPY  =       0

     BOX TYPE: TRUNCATED OCTAHEDRON

--------------------------------------------------------------------------------
   2.  CONTROL  DATA  FOR  THE  RUN
--------------------------------------------------------------------------------

default_name

General flags:
     imin    =       0, nmropt  =       0

Nature and format of input:
     ntx     =       5, irest   =       1, ntrx    =       1

Nature and format of output:
     ntxo    =       2, ntpr    =      50, ntrx    =       1, ntwr    =     500
     iwrap   =       1, ntwx    =    1000, ntwv    =       0, ntwe    =       0
     ioutfm  =       1, ntwprt  =       0, idecomp =       0, rbornstat=      0

Potential function:
     ntf     =       1, ntb     =       2, igb     =       0, nsnb    =      25
     ipol    =       0, gbsa    =       0, iesp    =       0
     dielc   =   1.00000, cut     =   8.00000, intdiel =   1.00000

Frozen or restrained atoms:
     ibelly  =       0, ntr     =       1
     restraint_wt =   0.50000

Molecular dynamics:
     nstlim  =     10000, nscm    =         0, nrespa  =         1
     t       =   0.00000, dt      =   0.00100, vlimit  =  -1.00000

Berendsen (weak-coupling) temperature regulation:
     temp0   = 310.00000, tempi   = 310.00000, tautp   =   1.00000

Pressure regulation:
     ntp     =       1
     pres0   =   1.00000, comp    =  44.60000, taup    =   1.00000

SHAKE:
     ntc     =       2, jfastw  =       0
     tol     =   0.00001

Ewald parameters:
     verbose =       0, ew_type =       0, nbflag  =       1, use_pme =       1
     vdwmeth =       1, eedmeth =       1, netfrc  =       1
     Box X =   77.763   Box Y =   77.763   Box Z =   77.763
     Alpha =  109.471   Beta  =  109.471   Gamma =  109.471
     NFFT1 =   80       NFFT2 =   80       NFFT3 =   80
     Cutoff=    8.000   Tol   =0.100E-04
     Ewald Coefficient =  0.34864
     Interpolation order =    4

    LOADING THE CONSTRAINED ATOMS AS GROUPS

   5.  REFERENCE ATOM COORDINATES

  default_name
     Mask :276-1 & !@H=; matches     0 atoms

--------------------------------------------------------------------------------
   3.  ATOMIC COORDINATES AND VELOCITIES
--------------------------------------------------------------------------------

default_name
 begin time read from input coords =    10.000 ps

 Number of triangulated 3-point waters found:    10505

     Sum of charges from parm topology file =  -0.00000017
     Forcing neutrality...

--------------------------------------------------------------------------------
   4.  RESULTS
 NSTEP =       50   TIME(PS) =      10.050  TEMP(K) =   305.05  PRESS =  -164.0
 Etot   =    -86325.5422  EKtot   =     22554.0469  EPtot      =   -108879.5891
 BOND   =       843.5392  ANGLE   =      2388.1155  DIHED      =      3673.7152
 1-4 NB =      1037.4419  1-4 EEL =     12755.5261  VDWAALS    =     12149.3479
 EELEC  =   -141727.2749  EHBOND  =         0.0000  RESTRAINT  =         0.0000
 EKCMT  =      9538.0729  VIRIAL  =     10819.5541  VOLUME     =    361850.3242
                                                    Density    =         1.0188
 ------------------------------------------------------------------------------

      A V E R A G E S   O V E R     200 S T E P S

 NSTEP =    10000   TIME(PS) =      20.000  TEMP(K) =   308.90  PRESS =     1.5
 Etot   =    -85718.6937  EKtot   =     22838.6945  EPtot      =   -108557.3882
 BOND   =       853.7582  ANGLE   =      2372.6950  DIHED      =      3658.5081
 1-4 NB =      1017.5206  1-4 EEL =     12759.4155  VDWAALS    =     12182.7216
 EELEC  =   -141402.0071  EHBOND  =         0.0000  RESTRAINT  =         0.0000
 EKCMT  =      9685.0647  VIRIAL  =      9673.1988  VOLUME     =    362760.0388
                                                    Density    =         1.0163
 ------------------------------------------------------------------------------

      R M S  F L U C T U A T I O N S

 NSTEP =    10000   TIME(PS) =      20.000  TEMP(K) =     1.47  PRESS =   129.4
 Etot   =       222.0608  EKtot   =       108.4823  EPtot      =       175.2108
 BOND   =        23.1142  ANGLE   =        32.3777  DIHED      =        19.8953
 1-4 NB =        14.0691  1-4 EEL =        31.7431  VDWAALS    =       145.0816
 EELEC  =       254.1500  EHBOND  =         0.0000  RESTRAINT  =         0.0000
 EKCMT  =        73.4135  VIRIAL  =      1018.9086  VOLUME     =       519.1860
                                                    Density    =         0.0015
 ------------------------------------------------------------------------------
