-------------------------------------------------------
          Amber 24 PMEMD                              2024
          -------------------------------------------------------

  [-O]verwriting output

File Assignments:

 Here is the input file:

MD explicit solvent heavy atom no rest shake dt 0.002
&cntrl
  imin = 0, nstlim = 100000, dt=0.002,
  ntx = 5, irest = 1,
  ntwx = 5000, ioutfm = 1, ntpr = 10000, ntwr = 10000,
  iwrap = 1, nscm = 1000,
  ntc = 2, ntf = 1, ntb = 2, cut = 8.0,
  ntt = 1, tautp = 1.0, temp0 = 310.0, tempi = 310.0,
  ntp = 1, taup = 1.0,
  igb = 0, saltcon = 0.0,
  ntr = 0,
&end

Note: ig = -1. Setting random seed to   265674 based on wallclock time in
      microseconds.

--------------------------------------------------------------------------------
   1.  RESOURCE   USE:
--------------------------------------------------------------------------------

 getting box info from netcdf restart file
 NATOM  =   36074 NTYPES =      27 NBONH =   33811 MBONA  =    2276
 NTHETH =    5254 MTHETA =    3069 NPHIH =   10329 MPHIA  =    9843
 NHPARM =       0 NPARM  =       0 NNB   =   67179 NRES   =   10809
 NBONA  =    2276 NTHETA =    3069 NPHIA =    9843 NUMBND =      75
 NUMANG =     174 NPTRA  =     206 NATYP =      39 NPHB   =       0
 IFBOX  =       2 NMXRS  =      44 IFCAP =       0 NEXTRA =       0
 NCOPY  =       0

     BOX TYPE: TRUNCATED OCTAHEDRON

--------------------------------------------------------------------------------
   2.  CONTROL  DATA  FOR  THE  RUN
--------------------------------------------------------------------------------

default_name

General flags:
     imin    =       0, nmropt  =       0

Nature and format of input:
     ntx     =       5, irest   =       1, ntrx    =       1

Nature and format of output:
     ntxo    =       2, ntpr    =   10000, ntrx    =       1, ntwr    =   10000
     iwrap   =       1, ntwx    =    5000, ntwv    =       0, ntwe    =       0
     ioutfm  =       1, ntwprt  =       0, idecomp =       0, rbornstat=      0

Potential function:
     ntf     =       1, ntb     =       2, igb     =       0, nsnb    =      25
     ipol    =       0, gbsa    =       0, iesp    =       0
     dielc   =   1.00000, cut     =   8.00000, intdiel =   1.00000

Frozen or restrained atoms:
     ibelly  =       0, ntr     =       0

Molecular dynamics:
     nstlim  =    100000, nscm    =      1000, nrespa  =         1
     t       =   0.00000, dt      =   0.00200, vlimit  =  -1.00000

Berendsen (weak-coupling) temperature regulation:
     temp0   = 310.00000, tempi   = 310.00000, tautp   =   1.00000

Pressure regulation:
     ntp     =       1
     pres0   =   1.00000, comp    =  44.60000, taup    =   1.00000

SHAKE:
     ntc     =       2, jfastw  =       0
     tol     =   0.00001

Ewald parameters:
     verbose =       0, ew_type =       0, nbflag  =       1, use_pme =       1
     vdwmeth =       1, eedmeth =       1, netfrc  =       1
     Box X =   77.825   Box Y =   77.825   Box Z =   77.825
     Alpha =  109.471   Beta  =  109.471   Gamma =  109.471
     NFFT1 =   80       NFFT2 =   80       NFFT3 =   80
     Cutoff=    8.000   Tol   =0.100E-04
     Ewald Coefficient =  0.34864
     Interpolation order =    4

--------------------------------------------------------------------------------
   3.  ATOMIC COORDINATES AND VELOCITIES
--------------------------------------------------------------------------------

default_name
 begin time read from input coords =    40.000 ps

 Number of triangulated 3-point waters found:    10505

     Sum of charges from parm topology file =  -0.00000017
     Forcing neutrality...

--------------------------------------------------------------------------------
   4.  RESULTS
 NSTEP =    10000   TIME(PS) =      60.000  TEMP(K) =   308.45  PRESS =    27.1
 Etot   =    -85111.7777  EKtot   =     22804.2539  EPtot      =   -107916.0316
 BOND   =       845.0487  ANGLE   =      2303.7735  DIHED      =      3702.1504
 1-4 NB =      1020.1736  1-4 EEL =     12812.3305  VDWAALS    =     11969.7867
 EELEC  =   -140569.2949  EHBOND  =         0.0000  RESTRAINT  =         0.0000
 EKCMT  =      9802.8460  VIRIAL  =      9590.1294  VOLUME     =    363456.5364
                                                    Density    =         1.0143
 ------------------------------------------------------------------------------

      A V E R A G E S   O V E R      10 S T E P S

 NSTEP =   100000   TIME(PS) =     240.000  TEMP(K) =   309.37  PRESS =    33.3
 Etot   =    -85161.3641  EKtot   =     22872.3635  EPtot      =   -108033.7276
 BOND   =       834.7529  ANGLE   =      2360.9499  DIHED      =      3645.5186
 1-4 NB =      1021.9460  1-4 EEL =     12792.6571  VDWAALS    =     11970.3165
 EELEC  =   -140659.8685  EHBOND  =         0.0000  RESTRAINT  =         0.0000
 EKCMT  =      9780.5540  VIRIAL  =      9520.0597  VOLUME     =    363404.3758
                                                    Density    =         1.0145
 ------------------------------------------------------------------------------

      R M S  F L U C T U A T I O N S

 NSTEP =   100000   TIME(PS) =     240.000  TEMP(K) =     1.07  PRESS =   125.3
 Etot   =        30.2875  EKtot   =        78.8757  EPtot      =        85.5971
 BOND   =        17.0286  ANGLE   =        33.2073  DIHED      =        23.8751
 1-4 NB =        17.1186  1-4 EEL =        41.1481  VDWAALS    =       124.2876
 EELEC  =       176.7308  EHBOND  =         0.0000  RESTRAINT  =         0.0000
 EKCMT  =        49.5854  VIRIAL  =       966.4209  VOLUME     =       375.1985
                                                    Density    =         0.0010
 ------------------------------------------------------------------------------
