-------------------------------------------------------
          Amber 24 PMEMD                              2024
          -------------------------------------------------------

  [-O]verwriting output

File Assignments:

 Here is the input file:

MD explicit solvent heavy atom rest shake dt 0.001
&cntrl
  imin = 0, nstlim = 30000, dt=0.001,
  ntx = 1, irest = 0, ig = -1,
  ntwx = 1500, ioutfm = 1, ntpr = 50, ntwr = 500,
  iwrap = 1, nscm = 0,
  ntc = 2, ntf = 1, ntb = 1, cut = 8.0,
  ntt = 1, tautp = 0.5, temp0 = 310.0, tempi = 310.0,
  ntp = 0, taup = 0.5,
  igb = 0, saltcon = 0.0,
  ntr = 1, restraintmask = ':276-1 & !@H=', restraint_wt = 5.0,
&end

Note: ig = -1. Setting random seed to   911795 based on wallclock time in
      microseconds.

--------------------------------------------------------------------------------
   1.  RESOURCE   USE:
--------------------------------------------------------------------------------

 getting box info from netcdf restart file
 NATOM  =   36074 NTYPES =      27 NBONH =   33811 MBONA  =    2276
 NTHETH =    5254 MTHETA =    3069 NPHIH =   10329 MPHIA  =    9843
 NHPARM =       0 NPARM  =       0 NNB   =   67179 NRES   =   10809
 NBONA  =    2276 NTHETA =    3069 NPHIA =    9843 NUMBND =      75
 NUMANG =     174 NPTRA  =     206 NATYP =      39 NPHB   =       0
 IFBOX  =       2 NMXRS  =      44 IFCAP =       0 NEXTRA =       0
 NCOPY  =       0

     BOX TYPE: TRUNCATED OCTAHEDRON

--------------------------------------------------------------------------------
   2.  CONTROL  DATA  FOR  THE  RUN
--------------------------------------------------------------------------------

default_name

General flags:
     imin    =       0, nmropt  =       0

Nature and format of input:
     ntx     =       1, irest   =       0, ntrx    =       1

Nature and format of output:
     ntxo    =       2, ntpr    =      50, ntrx    =       1, ntwr    =     500
     iwrap   =       1, ntwx    =    1500, ntwv    =       0, ntwe    =       0
     ioutfm  =       1, ntwprt  =       0, idecomp =       0, rbornstat=      0

Potential function:
     ntf     =       1, ntb     =       1, igb     =       0, nsnb    =      25
     ipol    =       0, gbsa    =       0, iesp    =       0
     dielc   =   1.00000, cut     =   8.00000, intdiel =   1.00000

Frozen or restrained atoms:
     ibelly  =       0, ntr     =       1
     restraint_wt =   5.00000

Molecular dynamics:
     nstlim  =     30000, nscm    =         0, nrespa  =         1
     t       =   0.00000, dt      =   0.00100, vlimit  =  -1.00000

Berendsen (weak-coupling) temperature regulation:
     temp0   = 310.00000, tempi   = 310.00000, tautp   =   0.50000

SHAKE:
     ntc     =       2, jfastw  =       0
     tol     =   0.00001

Ewald parameters:
     verbose =       0, ew_type =       0, nbflag  =       1, use_pme =       1
     vdwmeth =       1, eedmeth =       1, netfrc  =       1
     Box X =   81.189   Box Y =   81.189   Box Z =   81.189
     Alpha =  109.471   Beta  =  109.471   Gamma =  109.471
     NFFT1 =   84       NFFT2 =   84       NFFT3 =   84
     Cutoff=    8.000   Tol   =0.100E-04
     Ewald Coefficient =  0.34864
     Interpolation order =    4

    LOADING THE CONSTRAINED ATOMS AS GROUPS

   5.  REFERENCE ATOM COORDINATES

  default_name
     Mask :276-1 & !@H=; matches     0 atoms

--------------------------------------------------------------------------------
   3.  ATOMIC COORDINATES AND VELOCITIES
--------------------------------------------------------------------------------

default_name
 begin time read from input coords =     0.000 ps

 Number of triangulated 3-point waters found:    10505

     Sum of charges from parm topology file =  -0.00000017
     Forcing neutrality...

--------------------------------------------------------------------------------
   4.  RESULTS
 NSTEP =        0   TIME(PS) =       0.000  TEMP(K) =   447.91  PRESS =     0.0
 Etot   =   -104688.5136  EKtot   =     33115.7273  EPtot      =   -137804.2410
 BOND   =      9634.5898  ANGLE   =       622.9750  DIHED      =      3303.0081
 1-4 NB =       881.1019  1-4 EEL =     12799.4818  VDWAALS    =     20909.7919
 EELEC  =   -185955.1895  EHBOND  =         0.0000  RESTRAINT  =         0.0000
 ------------------------------------------------------------------------------

      A V E R A G E S   O V E R     600 S T E P S

 NSTEP =    30000   TIME(PS) =      30.000  TEMP(K) =   304.95  PRESS =     0.0
 Etot   =    -82841.6996  EKtot   =     22546.2428  EPtot      =   -105387.9424
 BOND   =       850.0153  ANGLE   =      2349.4150  DIHED      =      3666.0446
 1-4 NB =      1004.3778  1-4 EEL =     12727.9485  VDWAALS    =     11441.8141
 EELEC  =   -137427.5577  EHBOND  =         0.0000  RESTRAINT  =         0.0000
 ------------------------------------------------------------------------------

      R M S  F L U C T U A T I O N S

 NSTEP =    30000   TIME(PS) =      30.000  TEMP(K) =    17.16  PRESS =     0.0
 Etot   =      3076.0289  EKtot   =      1268.9097  EPtot      =      1823.2403
 BOND   =        54.5788  ANGLE   =       122.0494  DIHED      =        28.8054
 1-4 NB =        16.6472  1-4 EEL =        35.3256  VDWAALS    =       696.6336
 EELEC  =      2290.6064  EHBOND  =         0.0000  RESTRAINT  =         0.0000
 ------------------------------------------------------------------------------
