-------------------------------------------------------
          Amber 24 PMEMD                              2024
          -------------------------------------------------------

  [-O]verwriting output

File Assignments:

 Here is the input file:

MD explicit solvent heavy atom low rest shake dt 0.001
&cntrl
  imin = 0, nstlim = 10000, dt=0.001,
  ntx = 1, irest = 0, ig = -1,
  ntwx = 1000, ioutfm = 1, ntpr = 50, ntwr = 500,
  iwrap = 1, nscm = 0,
  ntc = 2, ntf = 1, ntb = 2, cut = 8.0,
  ntt = 1, tautp = 1.0, temp0 = 310.0, tempi = 310.0,
  ntp = 1, taup = 1.0,
  igb = 0, saltcon = 0.0,
  ntr = 1, restraintmask = ':276-1 & !@H=', restraint_wt = 1.0,
&end

Note: ig = -1. Setting random seed to   197276 based on wallclock time in
      microseconds.

--------------------------------------------------------------------------------
   1.  RESOURCE   USE:
--------------------------------------------------------------------------------

 getting box info from netcdf restart file
 NATOM  =   36074 NTYPES =      27 NBONH =   33811 MBONA  =    2276
 NTHETH =    5254 MTHETA =    3069 NPHIH =   10329 MPHIA  =    9843
 NHPARM =       0 NPARM  =       0 NNB   =   67179 NRES   =   10809
 NBONA  =    2276 NTHETA =    3069 NPHIA =    9843 NUMBND =      75
 NUMANG =     174 NPTRA  =     206 NATYP =      39 NPHB   =       0
 IFBOX  =       2 NMXRS  =      44 IFCAP =       0 NEXTRA =       0
 NCOPY  =       0

     BOX TYPE: TRUNCATED OCTAHEDRON

--------------------------------------------------------------------------------
   2.  CONTROL  DATA  FOR  THE  RUN
--------------------------------------------------------------------------------

default_name

General flags:
     imin    =       0, nmropt  =       0

Nature and format of input:
     ntx     =       1, irest   =       0, ntrx    =       1

Nature and format of output:
     ntxo    =       2, ntpr    =      50, ntrx    =       1, ntwr    =     500
     iwrap   =       1, ntwx    =    1000, ntwv    =       0, ntwe    =       0
     ioutfm  =       1, ntwprt  =       0, idecomp =       0, rbornstat=      0

Potential function:
     ntf     =       1, ntb     =       2, igb     =       0, nsnb    =      25
     ipol    =       0, gbsa    =       0, iesp    =       0
     dielc   =   1.00000, cut     =   8.00000, intdiel =   1.00000

Frozen or restrained atoms:
     ibelly  =       0, ntr     =       1
     restraint_wt =   1.00000

Molecular dynamics:
     nstlim  =     10000, nscm    =         0, nrespa  =         1
     t       =   0.00000, dt      =   0.00100, vlimit  =  -1.00000

Berendsen (weak-coupling) temperature regulation:
     temp0   = 310.00000, tempi   = 310.00000, tautp   =   1.00000

Pressure regulation:
     ntp     =       1
     pres0   =   1.00000, comp    =  44.60000, taup    =   1.00000

SHAKE:
     ntc     =       2, jfastw  =       0
     tol     =   0.00001

Ewald parameters:
     verbose =       0, ew_type =       0, nbflag  =       1, use_pme =       1
     vdwmeth =       1, eedmeth =       1, netfrc  =       1
     Box X =   81.189   Box Y =   81.189   Box Z =   81.189
     Alpha =  109.471   Beta  =  109.471   Gamma =  109.471
     NFFT1 =   84       NFFT2 =   84       NFFT3 =   84
     Cutoff=    8.000   Tol   =0.100E-04
     Ewald Coefficient =  0.34864
     Interpolation order =    4

    LOADING THE CONSTRAINED ATOMS AS GROUPS

   5.  REFERENCE ATOM COORDINATES

  default_name
     Mask :276-1 & !@H=; matches     0 atoms

--------------------------------------------------------------------------------
   3.  ATOMIC COORDINATES AND VELOCITIES
--------------------------------------------------------------------------------

default_name
 begin time read from input coords =     0.000 ps

 Number of triangulated 3-point waters found:    10505

     Sum of charges from parm topology file =  -0.00000017
     Forcing neutrality...

--------------------------------------------------------------------------------
   4.  RESULTS
 NSTEP =        0   TIME(PS) =       0.000  TEMP(K) =   451.40  PRESS = -5096.9
 Etot   =   -110431.7796  EKtot   =     33374.1706  EPtot      =   -143805.9501
 BOND   =     10237.0862  ANGLE   =       599.0017  DIHED      =      3192.1042
 1-4 NB =       853.6474  1-4 EEL =     12746.2464  VDWAALS    =     21780.0779
 EELEC  =   -193214.1140  EHBOND  =         0.0000  RESTRAINT  =         0.0000
 EKCMT  =      9674.8411  VIRIAL  =     55012.4793  VOLUME     =    411975.7829
                                                    Density    =         0.8949
 ------------------------------------------------------------------------------

      A V E R A G E S   O V E R     200 S T E P S

 NSTEP =    10000   TIME(PS) =      10.000  TEMP(K) =   275.98  PRESS =  -294.8
 Etot   =    -92238.6128  EKtot   =     20404.6969  EPtot      =   -112643.3097
 BOND   =       769.5336  ANGLE   =      2165.8166  DIHED      =      3612.8472
 1-4 NB =      1000.3198  1-4 EEL =     12762.7824  VDWAALS    =     13586.2770
 EELEC  =   -146540.8863  EHBOND  =         0.0000  RESTRAINT  =         0.0000
 EKCMT  =      8723.5847  VIRIAL  =     11184.1344  VOLUME     =    367649.2420
                                                    Density    =         1.0038
 ------------------------------------------------------------------------------

      R M S  F L U C T U A T I O N S

 NSTEP =    10000   TIME(PS) =      10.000  TEMP(K) =    34.73  PRESS =   524.7
 Etot   =      6097.0713  EKtot   =      2567.7947  EPtot      =      3560.9513
 BOND   =        94.2978  ANGLE   =       229.8707  DIHED      =        63.4800
 1-4 NB =        23.1605  1-4 EEL =        32.4432  VDWAALS    =      1342.1119
 EELEC  =      4465.6183  EHBOND  =         0.0000  RESTRAINT  =         0.0000
 EKCMT  =       984.1438  VIRIAL  =      3625.5371  VOLUME     =     12021.2961
                                                    Density    =         0.0310
 ------------------------------------------------------------------------------
